-------------------------------------------------------
          Amber 22 SANDER                              2022
          -------------------------------------------------------

  [-O]verwriting output

File Assignments:

 Here is the input file:

cat > mdin <<EOF
 &cntrl
  imin   = 0,
  irest  = 0,
  ntx    = 1,
  ntb    = 1,
  cut    = 15.0,
  ntr    = 0,
  ntc    = 2,
  ntf    = 2,
  tempi  = 0.0,
  temp0  = 298.0,
  ntt    = 3,
  gamma_ln = 1.0,
  nstlim = 10000, dt = 0.002
  ntpr = 100, ntwx = 100, ntwr = 1000
 /
EOF

set output = mdout

--------------------------------------------------------------------------------
   1.  RESOURCE   USE:
--------------------------------------------------------------------------------

 getting box info from netcdf restart file
 NATOM  =   66045 NTYPES =      20 NBONH =   62684 MBONA  =    3457
 NTHETH =    7763 MTHETA =    4705 NPHIH =   15119 MPHIA  =   11685
 NHPARM =       0 NPARM  =       0 NNB   =  116739 NRES   =   20173
 NBONA  =    3457 NTHETA =    4705 NPHIA =   11685 NUMBND =      60
 NUMANG =     116 NPTRA  =      49 NATYP =      44 NPHB   =       0
 IFBOX  =       1 NMXRS  =      30 IFCAP =       0 NEXTRA =       0
 NCOPY  =       0

     BOX TYPE: RECTILINEAR

--------------------------------------------------------------------------------
   2.  CONTROL  DATA  FOR  THE  RUN
--------------------------------------------------------------------------------

default_name

General flags:
     imin    =       0, nmropt  =       0

Nature and format of input:
     ntx     =       1, irest   =       0, ntrx    =       1

Nature and format of output:
     ntxo    =       2, ntpr    =     100, ntrx    =       1, ntwr    =    1000
     iwrap   =       0, ntwx    =     100, ntwv    =       0, ntwe    =       0
     ioutfm  =       1, ntwprt  =       0, idecomp =       0, rbornstat=      0

Potential function:
     ntf     =       2, ntb     =       1, igb     =       0, nsnb    =      25
     ipol    =       0, gbsa    =       0, iesp    =       0
     dielc   =   1.00000, cut     =  15.00000, intdiel =   1.00000

Frozen or restrained atoms:
     ibelly  =       0, ntr     =       0

Molecular dynamics:
     nstlim  =     10000, nscm    =      1000, nrespa  =         1
     t       =   0.00000, dt      =   0.00200, vlimit  =  20.00000

Langevin dynamics temperature regulation:
     ig      =   71277
     temp0   = 298.00000, tempi   =   0.00000, gamma_ln=   1.00000

SHAKE:
     ntc     =       2, jfastw  =       0
     tol     =   0.00001

Ewald parameters:
     verbose =       0, ew_type =       0, nbflag  =       1, use_pme =       1
     vdwmeth =       1, eedmeth =       1, netfrc  =       1
     Box X =  114.609   Box Y =   90.423   Box Z =   77.345
     Alpha =   90.000   Beta  =   90.000   Gamma =   90.000
     NFFT1 =  120       NFFT2 =   90       NFFT3 =   80
     Cutoff=   15.000   Tol   =0.100E-04
     Ewald Coefficient =  0.17871
     Interpolation order =    4

--------------------------------------------------------------------------------
   3.  ATOMIC COORDINATES AND VELOCITIES
--------------------------------------------------------------------------------

default_name
 begin time read from input coords =     0.000 ps

 Number of triangulated 3-point waters found:    19767

     Sum of charges from parm topology file =   3.99799984
     Assuming uniform neutralizing plasma

--------------------------------------------------------------------------------
   4.  RESULTS
 NSTEP =        0   TIME(PS) =       0.000  TEMP(K) =     0.00  PRESS =     0.0
 Etot   =   -264925.6862  EKtot   =         0.0000  EPtot      =   -264925.6862
 BOND   =       224.4298  ANGLE   =       909.1630  DIHED      =      3993.0345
 1-4 NB =      1356.4651  1-4 EEL =     19204.9327  VDWAALS    =     38354.5496
 EELEC  =   -328968.2608  EHBOND  =         0.0000  RESTRAINT  =         0.0000
 Ewald error estimate:   0.2539E-03
 ------------------------------------------------------------------------------

      A V E R A G E S   O V E R   10000 S T E P S

 NSTEP =    10000   TIME(PS) =      20.000  TEMP(K) =   284.22  PRESS =     0.0
 Etot   =   -159304.2688  EKtot   =     38250.8590  EPtot      =   -197555.1278
 BOND   =      1230.8901  ANGLE   =      3337.4606  DIHED      =      4553.2554
 1-4 NB =      1540.7967  1-4 EEL =     19207.3141  VDWAALS    =     24798.9374
 EELEC  =   -252223.7821  EHBOND  =         0.0000  RESTRAINT  =         0.0000
 Ewald error estimate:   0.5993E-04
 ------------------------------------------------------------------------------

      R M S  F L U C T U A T I O N S

 NSTEP =    10000   TIME(PS) =      20.000  TEMP(K) =    39.84  PRESS =     0.0
 Etot   =     11788.2985  EKtot   =      5361.6633  EPtot      =      6482.3526
 BOND   =       157.1321  ANGLE   =       375.3133  DIHED      =        85.9275
 1-4 NB =        33.9351  1-4 EEL =        41.4358  VDWAALS    =      2514.1246
 EELEC  =      8305.3317  EHBOND  =         0.0000  RESTRAINT  =         0.0000
 Ewald error estimate:   0.4907E-04
 ------------------------------------------------------------------------------
