-------------------------------------------------------
          Amber 22 SANDER                              2022
          -------------------------------------------------------

  [-O]verwriting output

File Assignments:

 Here is the input file:

Heat_pbc.in

cat > mdin <<EOF
 &cntrl
  imin   = 0,
  irest  = 1,
  ntx    = 5,
  ntb    = 1,
  cut    = 15.0,
  ntr    = 0,
  ntc    = 2,
  ntf    = 2,
  temp0  = 298.0,
  ntt    = 3,
  gamma_ln = 1.0,
  nstlim = 10000, dt = 0.001
  ntpr = 100, ntwx = 100, ntwr = 1000
 /
EOF

set output = mdout

--------------------------------------------------------------------------------
   1.  RESOURCE   USE:
--------------------------------------------------------------------------------

 getting box info from netcdf restart file
 NATOM  =   69313 NTYPES =      20 NBONH =   65948 MBONA  =    3457
 NTHETH =    7763 MTHETA =    4705 NPHIH =   15119 MPHIA  =   11685
 NHPARM =       0 NPARM  =       0 NNB   =  121095 NRES   =   21265
 NBONA  =    3457 NTHETA =    4705 NPHIA =   11685 NUMBND =      60
 NUMANG =     116 NPTRA  =      49 NATYP =      44 NPHB   =       0
 IFBOX  =       1 NMXRS  =      30 IFCAP =       0 NEXTRA =       0
 NCOPY  =       0

     BOX TYPE: RECTILINEAR

--------------------------------------------------------------------------------
   2.  CONTROL  DATA  FOR  THE  RUN
--------------------------------------------------------------------------------

default_name

General flags:
     imin    =       0, nmropt  =       0

Nature and format of input:
     ntx     =       5, irest   =       1, ntrx    =       1

Nature and format of output:
     ntxo    =       2, ntpr    =     100, ntrx    =       1, ntwr    =    1000
     iwrap   =       0, ntwx    =     100, ntwv    =       0, ntwe    =       0
     ioutfm  =       1, ntwprt  =       0, idecomp =       0, rbornstat=      0

Potential function:
     ntf     =       2, ntb     =       1, igb     =       0, nsnb    =      25
     ipol    =       0, gbsa    =       0, iesp    =       0
     dielc   =   1.00000, cut     =  15.00000, intdiel =   1.00000

Frozen or restrained atoms:
     ibelly  =       0, ntr     =       0

Molecular dynamics:
     nstlim  =     10000, nscm    =      1000, nrespa  =         1
     t       =   0.00000, dt      =   0.00100, vlimit  =  20.00000

Langevin dynamics temperature regulation:
     ig      =   71277
     temp0   = 298.00000, tempi   =   0.00000, gamma_ln=   1.00000

SHAKE:
     ntc     =       2, jfastw  =       0
     tol     =   0.00001

Ewald parameters:
     verbose =       0, ew_type =       0, nbflag  =       1, use_pme =       1
     vdwmeth =       1, eedmeth =       1, netfrc  =       1
     Box X =  114.609   Box Y =   90.423   Box Z =   81.303
     Alpha =   90.000   Beta  =   90.000   Gamma =   90.000
     NFFT1 =  120       NFFT2 =   90       NFFT3 =   81
     Cutoff=   15.000   Tol   =0.100E-04
     Ewald Coefficient =  0.17871
     Interpolation order =    4

--------------------------------------------------------------------------------
   3.  ATOMIC COORDINATES AND VELOCITIES
--------------------------------------------------------------------------------

default_name
 begin time read from input coords =    20.000 ps

 Number of triangulated 3-point waters found:    20855

     Sum of charges from parm topology file =  -0.00200016
     Forcing neutrality...

--------------------------------------------------------------------------------
   4.  RESULTS
 NSTEP =      100   TIME(PS) =      20.100  TEMP(K) =   299.24  PRESS =     0.0
 Etot   =   -163812.8086  EKtot   =     42217.2677  EPtot      =   -206030.0763
 BOND   =      1275.9573  ANGLE   =      3393.9771  DIHED      =      4539.0641
 1-4 NB =      1537.5201  1-4 EEL =     19165.7834  VDWAALS    =     24809.8863
 EELEC  =   -260752.2645  EHBOND  =         0.0000  RESTRAINT  =         0.0000
 Ewald error estimate:   0.7669E-04
 ------------------------------------------------------------------------------

      A V E R A G E S   O V E R   10000 S T E P S

 NSTEP =    10000   TIME(PS) =      30.000  TEMP(K) =   298.27  PRESS =     0.0
 Etot   =   -165116.6951  EKtot   =     42080.9529  EPtot      =   -207197.6481
 BOND   =      1245.4085  ANGLE   =      3347.2782  DIHED      =      4560.7575
 1-4 NB =      1546.7479  1-4 EEL =     19195.6273  VDWAALS    =     25173.4807
 EELEC  =   -262266.9482  EHBOND  =         0.0000  RESTRAINT  =         0.0000
 Ewald error estimate:   0.5714E-04
 ------------------------------------------------------------------------------

      R M S  F L U C T U A T I O N S

 NSTEP =    10000   TIME(PS) =      30.000  TEMP(K) =     1.27  PRESS =     0.0
 Etot   =       505.5464  EKtot   =       179.6226  EPtot      =       417.9044
 BOND   =        29.3421  ANGLE   =        46.0312  DIHED      =        23.7553
 1-4 NB =        16.8185  1-4 EEL =        40.1427  VDWAALS    =       229.0329
 EELEC  =       549.2818  EHBOND  =         0.0000  RESTRAINT  =         0.0000
 Ewald error estimate:   0.4354E-04
 ------------------------------------------------------------------------------
