-------------------------------------------------------
          Amber 22 SANDER                              2022
          -------------------------------------------------------

  [-O]verwriting output

File Assignments:

 Here is the input file:

cat > mdin <<EOF
 &cntrl
  imin   = 0,
  irest  = 0,
  ntx    = 1,
  ntb    = 1,
  cut    = 15.0,
  ntr    = 0,
  ntc    = 2,
  ntf    = 2,
  tempi  = 0.0,
  temp0  = 298.0,
  ntt    = 3,
  gamma_ln = 1.0,
  nstlim = 10000, dt = 0.002
  ntpr = 100, ntwx = 100, ntwr = 1000
 /
EOF

set output = mdout

--------------------------------------------------------------------------------
   1.  RESOURCE   USE:
--------------------------------------------------------------------------------

 getting box info from netcdf restart file
 NATOM  =   89420 NTYPES =      20 NBONH =   85126 MBONA  =    4408
 NTHETH =    9872 MTHETA =    6001 NPHIH =   19279 MPHIA  =   14892
 NHPARM =       0 NPARM  =       0 NNB   =  155714 NRES   =   27462
 NBONA  =    4408 NTHETA =    6001 NPHIA =   14892 NUMBND =      66
 NUMANG =     130 NPTRA  =      51 NATYP =      47 NPHB   =       0
 IFBOX  =       1 NMXRS  =      30 IFCAP =       0 NEXTRA =       0
 NCOPY  =       0

     BOX TYPE: RECTILINEAR

--------------------------------------------------------------------------------
   2.  CONTROL  DATA  FOR  THE  RUN
--------------------------------------------------------------------------------

default_name

General flags:
     imin    =       0, nmropt  =       0

Nature and format of input:
     ntx     =       1, irest   =       0, ntrx    =       1

Nature and format of output:
     ntxo    =       2, ntpr    =     100, ntrx    =       1, ntwr    =    1000
     iwrap   =       0, ntwx    =     100, ntwv    =       0, ntwe    =       0
     ioutfm  =       1, ntwprt  =       0, idecomp =       0, rbornstat=      0

Potential function:
     ntf     =       2, ntb     =       1, igb     =       0, nsnb    =      25
     ipol    =       0, gbsa    =       0, iesp    =       0
     dielc   =   1.00000, cut     =  15.00000, intdiel =   1.00000

Frozen or restrained atoms:
     ibelly  =       0, ntr     =       0

Molecular dynamics:
     nstlim  =     10000, nscm    =      1000, nrespa  =         1
     t       =   0.00000, dt      =   0.00200, vlimit  =  20.00000

Langevin dynamics temperature regulation:
     ig      =   71277
     temp0   = 298.00000, tempi   =   0.00000, gamma_ln=   1.00000

SHAKE:
     ntc     =       2, jfastw  =       0
     tol     =   0.00001

Ewald parameters:
     verbose =       0, ew_type =       0, nbflag  =       1, use_pme =       1
     vdwmeth =       1, eedmeth =       1, netfrc  =       1
     Box X =   90.530   Box Y =   85.784   Box Z =  138.190
     Alpha =   90.000   Beta  =   90.000   Gamma =   90.000
     NFFT1 =   90       NFFT2 =   90       NFFT3 =  144
     Cutoff=   15.000   Tol   =0.100E-04
     Ewald Coefficient =  0.17871
     Interpolation order =    4

--------------------------------------------------------------------------------
   3.  ATOMIC COORDINATES AND VELOCITIES
--------------------------------------------------------------------------------

default_name
 begin time read from input coords =     0.000 ps

 Number of triangulated 3-point waters found:    26939

     Sum of charges from parm topology file =  -4.00100023
     Assuming uniform neutralizing plasma

--------------------------------------------------------------------------------
   4.  RESULTS
 NSTEP =        0   TIME(PS) =       0.000  TEMP(K) =     0.00  PRESS =     0.0
 Etot   =   -362615.0239  EKtot   =         0.0000  EPtot      =   -362615.0239
 BOND   =       277.4338  ANGLE   =      1135.7797  DIHED      =      5132.9949
 1-4 NB =      1719.0955  1-4 EEL =     24074.9611  VDWAALS    =     52611.5749
 EELEC  =   -447566.8637  EHBOND  =         0.0000  RESTRAINT  =         0.0000
 Ewald error estimate:   0.1806E-03
 ------------------------------------------------------------------------------

      A V E R A G E S   O V E R   10000 S T E P S

 NSTEP =    10000   TIME(PS) =      20.000  TEMP(K) =   283.96  PRESS =     0.0
 Etot   =   -217426.7445  EKtot   =     51669.4375  EPtot      =   -269096.1821
 BOND   =      1566.1446  ANGLE   =      4252.6061  DIHED      =      5812.2300
 1-4 NB =      1959.9512  1-4 EEL =     24035.8853  VDWAALS    =     34012.3306
 EELEC  =   -340735.3300  EHBOND  =         0.0000  RESTRAINT  =         0.0000
 Ewald error estimate:   0.4785E-04
 ------------------------------------------------------------------------------

      R M S  F L U C T U A T I O N S

 NSTEP =    10000   TIME(PS) =      20.000  TEMP(K) =    39.83  PRESS =     0.0
 Etot   =     16340.1379  EKtot   =      7246.9039  EPtot      =      9185.3483
 BOND   =       197.8801  ANGLE   =       476.0347  DIHED      =       106.1035
 1-4 NB =        42.7468  1-4 EEL =        49.8038  VDWAALS    =      3601.5643
 EELEC  =     11922.7862  EHBOND  =         0.0000  RESTRAINT  =         0.0000
 Ewald error estimate:   0.3954E-04
 ------------------------------------------------------------------------------
