-------------------------------------------------------
          Amber 22 SANDER                              2022
          -------------------------------------------------------

  [-O]verwriting output

File Assignments:

 Here is the input file:

Heat_pbc.in

cat > mdin <<EOF
 &cntrl
  imin   = 0,
  irest  = 1,
  ntx    = 5,
  ntb    = 1,
  cut    = 15.0,
  ntr    = 0,
  ntc    = 2,
  ntf    = 2,
  temp0  = 298.0,
  ntt    = 3,
  gamma_ln = 1.0,
  nstlim = 10000, dt = 0.001
  ntpr = 100, ntwx = 100, ntwr = 1000
 /
EOF

set output = mdout

--------------------------------------------------------------------------------
   1.  RESOURCE   USE:
--------------------------------------------------------------------------------

 getting box info from netcdf restart file
 NATOM  =   89393 NTYPES =      17 NBONH =   85120 MBONA  =    4385
 NTHETH =    9851 MTHETA =    5965 NPHIH =   19236 MPHIA  =   14841
 NHPARM =       0 NPARM  =       0 NNB   =  155563 NRES   =   27462
 NBONA  =    4385 NTHETA =    5965 NPHIA =   14841 NUMBND =      51
 NUMANG =     104 NPTRA  =      45 NATYP =      38 NPHB   =       0
 IFBOX  =       1 NMXRS  =      24 IFCAP =       0 NEXTRA =       0
 NCOPY  =       0

     BOX TYPE: RECTILINEAR

--------------------------------------------------------------------------------
   2.  CONTROL  DATA  FOR  THE  RUN
--------------------------------------------------------------------------------

default_name

General flags:
     imin    =       0, nmropt  =       0

Nature and format of input:
     ntx     =       5, irest   =       1, ntrx    =       1

Nature and format of output:
     ntxo    =       2, ntpr    =     100, ntrx    =       1, ntwr    =    1000
     iwrap   =       0, ntwx    =     100, ntwv    =       0, ntwe    =       0
     ioutfm  =       1, ntwprt  =       0, idecomp =       0, rbornstat=      0

Potential function:
     ntf     =       2, ntb     =       1, igb     =       0, nsnb    =      25
     ipol    =       0, gbsa    =       0, iesp    =       0
     dielc   =   1.00000, cut     =  15.00000, intdiel =   1.00000

Frozen or restrained atoms:
     ibelly  =       0, ntr     =       0

Molecular dynamics:
     nstlim  =     10000, nscm    =      1000, nrespa  =         1
     t       =   0.00000, dt      =   0.00100, vlimit  =  20.00000

Langevin dynamics temperature regulation:
     ig      =   71277
     temp0   = 298.00000, tempi   =   0.00000, gamma_ln=   1.00000

SHAKE:
     ntc     =       2, jfastw  =       0
     tol     =   0.00001

Ewald parameters:
     verbose =       0, ew_type =       0, nbflag  =       1, use_pme =       1
     vdwmeth =       1, eedmeth =       1, netfrc  =       1
     Box X =   90.530   Box Y =   85.784   Box Z =  138.190
     Alpha =   90.000   Beta  =   90.000   Gamma =   90.000
     NFFT1 =   90       NFFT2 =   90       NFFT3 =  144
     Cutoff=   15.000   Tol   =0.100E-04
     Ewald Coefficient =  0.17871
     Interpolation order =    4

--------------------------------------------------------------------------------
   3.  ATOMIC COORDINATES AND VELOCITIES
--------------------------------------------------------------------------------

default_name
 begin time read from input coords =    20.000 ps

 Number of triangulated 3-point waters found:    26940

     Sum of charges from parm topology file =  -3.99900023
     Assuming uniform neutralizing plasma

--------------------------------------------------------------------------------
   4.  RESULTS
 NSTEP =      100   TIME(PS) =      20.100  TEMP(K) =   298.62  PRESS =     0.0
 Etot   =   -212659.0528  EKtot   =     54314.1654  EPtot      =   -266973.2181
 BOND   =      1606.8516  ANGLE   =      4266.4138  DIHED      =      5760.0318
 1-4 NB =      1967.1615  1-4 EEL =     24072.8680  VDWAALS    =     32441.2506
 EELEC  =   -337087.7956  EHBOND  =         0.0000  RESTRAINT  =         0.0000
 Ewald error estimate:   0.6312E-04
 ------------------------------------------------------------------------------

      A V E R A G E S   O V E R   10000 S T E P S

 NSTEP =    10000   TIME(PS) =      30.000  TEMP(K) =   298.26  PRESS =     0.0
 Etot   =   -213328.3513  EKtot   =     54250.0834  EPtot      =   -267578.4348
 BOND   =      1576.3837  ANGLE   =      4272.6664  DIHED      =      5756.7315
 1-4 NB =      1951.6794  1-4 EEL =     24068.5331  VDWAALS    =     32673.4388
 EELEC  =   -337877.8677  EHBOND  =         0.0000  RESTRAINT  =         0.0000
 Ewald error estimate:   0.5449E-04
 ------------------------------------------------------------------------------

      R M S  F L U C T U A T I O N S

 NSTEP =    10000   TIME(PS) =      30.000  TEMP(K) =     0.97  PRESS =     0.0
 Etot   =       455.0401  EKtot   =       176.9007  EPtot      =       393.2920
 BOND   =        33.4220  ANGLE   =        48.3710  DIHED      =        28.3895
 1-4 NB =        19.1031  1-4 EEL =        46.7295  VDWAALS    =       276.8894
 EELEC  =       536.8767  EHBOND  =         0.0000  RESTRAINT  =         0.0000
 Ewald error estimate:   0.4133E-04
 ------------------------------------------------------------------------------
