-------------------------------------------------------
          Amber 22 SANDER                              2022
          -------------------------------------------------------

  [-O]verwriting output

File Assignments:

 Here is the input file:

Heat_pbc.in

cat > mdin <<EOF
 &cntrl
  imin   = 0,
  irest  = 1,
  ntx    = 5,
  ntb    = 1,
  cut    = 15.0,
  ntr    = 0,
  ntc    = 2,
  ntf    = 2,
  temp0  = 298.0,
  ntt    = 3,
  gamma_ln = 1.0,
  nstlim = 10000, dt = 0.001
  ntpr = 100, ntwx = 100, ntwr = 1000
 /
EOF

set output = mdout

--------------------------------------------------------------------------------
   1.  RESOURCE   USE:
--------------------------------------------------------------------------------

 getting box info from netcdf restart file
 NATOM  =   61356 NTYPES =      16 NBONH =   58016 MBONA  =    3434
 NTHETH =    7742 MTHETA =    4669 NPHIH =   15076 MPHIA  =   11634
 NHPARM =       0 NPARM  =       0 NNB   =  110372 NRES   =   18619
 NBONA  =    3434 NTHETA =    4669 NPHIA =   11634 NUMBND =      43
 NUMANG =      89 NPTRA  =      42 NATYP =      31 NPHB   =       0
 IFBOX  =       1 NMXRS  =      24 IFCAP =       0 NEXTRA =       0
 NCOPY  =       0

     BOX TYPE: RECTILINEAR

--------------------------------------------------------------------------------
   2.  CONTROL  DATA  FOR  THE  RUN
--------------------------------------------------------------------------------

default_name

General flags:
     imin    =       0, nmropt  =       0

Nature and format of input:
     ntx     =       5, irest   =       1, ntrx    =       1

Nature and format of output:
     ntxo    =       2, ntpr    =     100, ntrx    =       1, ntwr    =    1000
     iwrap   =       0, ntwx    =     100, ntwv    =       0, ntwe    =       0
     ioutfm  =       1, ntwprt  =       0, idecomp =       0, rbornstat=      0

Potential function:
     ntf     =       2, ntb     =       1, igb     =       0, nsnb    =      25
     ipol    =       0, gbsa    =       0, iesp    =       0
     dielc   =   1.00000, cut     =  15.00000, intdiel =   1.00000

Frozen or restrained atoms:
     ibelly  =       0, ntr     =       0

Molecular dynamics:
     nstlim  =     10000, nscm    =      1000, nrespa  =         1
     t       =   0.00000, dt      =   0.00100, vlimit  =  20.00000

Langevin dynamics temperature regulation:
     ig      =   71277
     temp0   = 298.00000, tempi   =   0.00000, gamma_ln=   1.00000

SHAKE:
     ntc     =       2, jfastw  =       0
     tol     =   0.00001

Ewald parameters:
     verbose =       0, ew_type =       0, nbflag  =       1, use_pme =       1
     vdwmeth =       1, eedmeth =       1, netfrc  =       1
     Box X =  116.199   Box Y =   76.278   Box Z =   85.596
     Alpha =   90.000   Beta  =   90.000   Gamma =   90.000
     NFFT1 =  120       NFFT2 =   80       NFFT3 =   90
     Cutoff=   15.000   Tol   =0.100E-04
     Ewald Coefficient =  0.17871
     Interpolation order =    4

--------------------------------------------------------------------------------
   3.  ATOMIC COORDINATES AND VELOCITIES
--------------------------------------------------------------------------------

default_name
 begin time read from input coords =    20.000 ps

 Number of triangulated 3-point waters found:    18214

     Sum of charges from parm topology file =   3.99999984
     Assuming uniform neutralizing plasma

--------------------------------------------------------------------------------
   4.  RESULTS
 NSTEP =      100   TIME(PS) =      20.100  TEMP(K) =   299.28  PRESS =     0.0
 Etot   =   -143832.9126  EKtot   =     37482.9809  EPtot      =   -181315.8935
 BOND   =      1225.7919  ANGLE   =      3359.9410  DIHED      =      4500.1266
 1-4 NB =      1528.9227  1-4 EEL =     19146.7901  VDWAALS    =     21460.1155
 EELEC  =   -232537.5812  EHBOND  =         0.0000  RESTRAINT  =         0.0000
 Ewald error estimate:   0.4533E-04
 ------------------------------------------------------------------------------

      A V E R A G E S   O V E R   10000 S T E P S

 NSTEP =    10000   TIME(PS) =      30.000  TEMP(K) =   299.00  PRESS =     0.0
 Etot   =   -144292.3555  EKtot   =     37448.2107  EPtot      =   -181740.5662
 BOND   =      1222.3539  ANGLE   =      3326.4912  DIHED      =      4525.1397
 1-4 NB =      1537.0478  1-4 EEL =     19227.6543  VDWAALS    =     21625.6204
 EELEC  =   -233204.8734  EHBOND  =         0.0000  RESTRAINT  =         0.0000
 Ewald error estimate:   0.5966E-04
 ------------------------------------------------------------------------------

      R M S  F L U C T U A T I O N S

 NSTEP =    10000   TIME(PS) =      30.000  TEMP(K) =     1.12  PRESS =     0.0
 Etot   =       174.0838  EKtot   =       139.9249  EPtot      =       193.7895
 BOND   =        28.4770  ANGLE   =        44.7135  DIHED      =        23.7266
 1-4 NB =        15.3026  1-4 EEL =        39.3523  VDWAALS    =       217.3846
 EELEC  =       326.7375  EHBOND  =         0.0000  RESTRAINT  =         0.0000
 Ewald error estimate:   0.4528E-04
 ------------------------------------------------------------------------------
