-------------------------------------------------------
          Amber 22 SANDER                              2022
          -------------------------------------------------------

  [-O]verwriting output

File Assignments:

 Here is the input file:

Heat_pbc.in

cat > mdin <<EOF
 &cntrl
  imin   = 0,
  irest  = 1,
  ntx    = 5,
  ntb    = 1,
  cut    = 15.0,
  ntr    = 0,
  ntc    = 2,
  ntf    = 2,
  temp0  = 298.0,
  ntt    = 3,
  gamma_ln = 1.0,
  nstlim = 10000, dt = 0.001
  ntpr = 100, ntwx = 100, ntwr = 1000
 /
EOF

set output = mdout

--------------------------------------------------------------------------------
   1.  RESOURCE   USE:
--------------------------------------------------------------------------------

 getting box info from netcdf restart file
 NATOM  =   89420 NTYPES =      20 NBONH =   85126 MBONA  =    4408
 NTHETH =    9872 MTHETA =    6001 NPHIH =   19279 MPHIA  =   14892
 NHPARM =       0 NPARM  =       0 NNB   =  155714 NRES   =   27462
 NBONA  =    4408 NTHETA =    6001 NPHIA =   14892 NUMBND =      66
 NUMANG =     130 NPTRA  =      51 NATYP =      47 NPHB   =       0
 IFBOX  =       1 NMXRS  =      30 IFCAP =       0 NEXTRA =       0
 NCOPY  =       0

     BOX TYPE: RECTILINEAR

--------------------------------------------------------------------------------
   2.  CONTROL  DATA  FOR  THE  RUN
--------------------------------------------------------------------------------

default_name

General flags:
     imin    =       0, nmropt  =       0

Nature and format of input:
     ntx     =       5, irest   =       1, ntrx    =       1

Nature and format of output:
     ntxo    =       2, ntpr    =     100, ntrx    =       1, ntwr    =    1000
     iwrap   =       0, ntwx    =     100, ntwv    =       0, ntwe    =       0
     ioutfm  =       1, ntwprt  =       0, idecomp =       0, rbornstat=      0

Potential function:
     ntf     =       2, ntb     =       1, igb     =       0, nsnb    =      25
     ipol    =       0, gbsa    =       0, iesp    =       0
     dielc   =   1.00000, cut     =  15.00000, intdiel =   1.00000

Frozen or restrained atoms:
     ibelly  =       0, ntr     =       0

Molecular dynamics:
     nstlim  =     10000, nscm    =      1000, nrespa  =         1
     t       =   0.00000, dt      =   0.00100, vlimit  =  20.00000

Langevin dynamics temperature regulation:
     ig      =   71277
     temp0   = 298.00000, tempi   =   0.00000, gamma_ln=   1.00000

SHAKE:
     ntc     =       2, jfastw  =       0
     tol     =   0.00001

Ewald parameters:
     verbose =       0, ew_type =       0, nbflag  =       1, use_pme =       1
     vdwmeth =       1, eedmeth =       1, netfrc  =       1
     Box X =   90.530   Box Y =   85.784   Box Z =  138.190
     Alpha =   90.000   Beta  =   90.000   Gamma =   90.000
     NFFT1 =   90       NFFT2 =   90       NFFT3 =  144
     Cutoff=   15.000   Tol   =0.100E-04
     Ewald Coefficient =  0.17871
     Interpolation order =    4

--------------------------------------------------------------------------------
   3.  ATOMIC COORDINATES AND VELOCITIES
--------------------------------------------------------------------------------

default_name
 begin time read from input coords =    20.000 ps

 Number of triangulated 3-point waters found:    26939

     Sum of charges from parm topology file =  -4.00100023
     Assuming uniform neutralizing plasma

--------------------------------------------------------------------------------
   4.  RESULTS
 NSTEP =      100   TIME(PS) =      20.100  TEMP(K) =   298.60  PRESS =     0.0
 Etot   =   -212075.4477  EKtot   =     54333.3358  EPtot      =   -266408.7836
 BOND   =      1624.0518  ANGLE   =      4332.1998  DIHED      =      5817.6830
 1-4 NB =      1939.0698  1-4 EEL =     24039.1359  VDWAALS    =     32296.7250
 EELEC  =   -336457.6488  EHBOND  =         0.0000  RESTRAINT  =         0.0000
 Ewald error estimate:   0.6525E-04
 ------------------------------------------------------------------------------

      A V E R A G E S   O V E R   10000 S T E P S

 NSTEP =    10000   TIME(PS) =      30.000  TEMP(K) =   297.89  PRESS =     0.0
 Etot   =   -213270.2233  EKtot   =     54204.3645  EPtot      =   -267474.5878
 BOND   =      1578.6685  ANGLE   =      4285.9084  DIHED      =      5789.6281
 1-4 NB =      1954.2339  1-4 EEL =     24016.0987  VDWAALS    =     32579.6694
 EELEC  =   -337678.7947  EHBOND  =         0.0000  RESTRAINT  =         0.0000
 Ewald error estimate:   0.5072E-04
 ------------------------------------------------------------------------------

      R M S  F L U C T U A T I O N S

 NSTEP =    10000   TIME(PS) =      30.000  TEMP(K) =     0.95  PRESS =     0.0
 Etot   =       375.1870  EKtot   =       173.5922  EPtot      =       335.6070
 BOND   =        33.0374  ANGLE   =        54.9361  DIHED      =        26.9712
 1-4 NB =        18.8321  1-4 EEL =        50.6454  VDWAALS    =       248.0258
 EELEC  =       459.2221  EHBOND  =         0.0000  RESTRAINT  =         0.0000
 Ewald error estimate:   0.3909E-04
 ------------------------------------------------------------------------------
