-------------------------------------------------------
          Amber 22 SANDER                              2022
          -------------------------------------------------------

  [-O]verwriting output

File Assignments:

 Here is the input file:

cat > mdin <<EOF
 &cntrl
  imin   = 0,
  irest  = 0,
  ntx    = 1,
  ntb    = 1,
  cut    = 15.0,
  ntr    = 0,
  ntc    = 2,
  ntf    = 2,
  tempi  = 0.0,
  temp0  = 298.0,
  ntt    = 3,
  gamma_ln = 1.0,
  nstlim = 10000, dt = 0.002
  ntpr = 100, ntwx = 100, ntwr = 1000
 /
EOF

set output = mdout

--------------------------------------------------------------------------------
   1.  RESOURCE   USE:
--------------------------------------------------------------------------------

 getting box info from netcdf restart file
 NATOM  =    4466 NTYPES =      14 NBONH =    4443 MBONA  =      23
 NTHETH =      21 MTHETA =      36 NPHIH =      43 MPHIA  =      51
 NHPARM =       0 NPARM  =       0 NNB   =    6069 NRES   =    1481
 NBONA  =      23 NTHETA =      36 NPHIA =      51 NUMBND =      19
 NUMANG =      27 NPTRA  =      13 NATYP =      16 NPHB   =       0
 IFBOX  =       1 NMXRS  =      30 IFCAP =       0 NEXTRA =       0
 NCOPY  =       0

     BOX TYPE: RECTILINEAR

--------------------------------------------------------------------------------
   2.  CONTROL  DATA  FOR  THE  RUN
--------------------------------------------------------------------------------

default_name

General flags:
     imin    =       0, nmropt  =       0

Nature and format of input:
     ntx     =       1, irest   =       0, ntrx    =       1

Nature and format of output:
     ntxo    =       2, ntpr    =     100, ntrx    =       1, ntwr    =    1000
     iwrap   =       0, ntwx    =     100, ntwv    =       0, ntwe    =       0
     ioutfm  =       1, ntwprt  =       0, idecomp =       0, rbornstat=      0

Potential function:
     ntf     =       2, ntb     =       1, igb     =       0, nsnb    =      25
     ipol    =       0, gbsa    =       0, iesp    =       0
     dielc   =   1.00000, cut     =  15.00000, intdiel =   1.00000

Frozen or restrained atoms:
     ibelly  =       0, ntr     =       0

Molecular dynamics:
     nstlim  =     10000, nscm    =      1000, nrespa  =         1
     t       =   0.00000, dt      =   0.00200, vlimit  =  20.00000

Langevin dynamics temperature regulation:
     ig      =   71277
     temp0   = 298.00000, tempi   =   0.00000, gamma_ln=   1.00000

SHAKE:
     ntc     =       2, jfastw  =       0
     tol     =   0.00001

Ewald parameters:
     verbose =       0, ew_type =       0, nbflag  =       1, use_pme =       1
     vdwmeth =       1, eedmeth =       1, netfrc  =       1
     Box X =   38.861   Box Y =   47.921   Box Z =   34.680
     Alpha =   90.000   Beta  =   90.000   Gamma =   90.000
     NFFT1 =   40       NFFT2 =   48       NFFT3 =   36
     Cutoff=   15.000   Tol   =0.100E-04
     Ewald Coefficient =  0.17871
     Interpolation order =    4

--------------------------------------------------------------------------------
   3.  ATOMIC COORDINATES AND VELOCITIES
--------------------------------------------------------------------------------

default_name
 begin time read from input coords =     0.000 ps

 Number of triangulated 3-point waters found:     1478

     Sum of charges from parm topology file =  -2.00200000
     Assuming uniform neutralizing plasma

--------------------------------------------------------------------------------
   4.  RESULTS
 NSTEP =        0   TIME(PS) =       0.000  TEMP(K) =     0.00  PRESS =     0.0
 Etot   =    -18468.5370  EKtot   =         0.0000  EPtot      =    -18468.5370
 BOND   =         1.7456  ANGLE   =         3.1202  DIHED      =        16.8745
 1-4 NB =         8.3476  1-4 EEL =       -21.3423  VDWAALS    =      3255.9325
 EELEC  =    -21733.2150  EHBOND  =         0.0000  RESTRAINT  =         0.0000
 Ewald error estimate:   0.1408E-03
 ------------------------------------------------------------------------------

      A V E R A G E S   O V E R   10000 S T E P S

 NSTEP =    10000   TIME(PS) =      20.000  TEMP(K) =   285.63  PRESS =     0.0
 Etot   =    -11408.4863  EKtot   =      2541.4557  EPtot      =    -13949.9419
 BOND   =         7.5169  ANGLE   =        13.5367  DIHED      =        20.4043
 1-4 NB =         9.0255  1-4 EEL =       -22.3213  VDWAALS    =      2128.8297
 EELEC  =    -16106.9337  EHBOND  =         0.0000  RESTRAINT  =         0.0000
 Ewald error estimate:   0.2756E-03
 ------------------------------------------------------------------------------

      R M S  F L U C T U A T I O N S

 NSTEP =    10000   TIME(PS) =      20.000  TEMP(K) =    38.72  PRESS =     0.0
 Etot   =       745.2462  EKtot   =       344.5371  EPtot      =       408.5134
 BOND   =         2.3737  ANGLE   =         3.2242  DIHED      =         1.6762
 1-4 NB =         1.0191  1-4 EEL =         1.9154  VDWAALS    =       199.4761
 EELEC  =       596.8715  EHBOND  =         0.0000  RESTRAINT  =         0.0000
 Ewald error estimate:   0.1994E-03
 ------------------------------------------------------------------------------
