-------------------------------------------------------
          Amber 22 SANDER                              2022
          -------------------------------------------------------

  [-O]verwriting output

File Assignments:

 Here is the input file:

Heat_pbc.in

cat > mdin <<EOF
 &cntrl
  imin   = 0,
  irest  = 1,
  ntx    = 5,
  ntb    = 1,
  cut    = 15.0,
  ntr    = 0,
  ntc    = 2,
  ntf    = 2,
  temp0  = 298.0,
  ntt    = 3,
  gamma_ln = 1.0,
  nstlim = 10000, dt = 0.001
  ntpr = 100, ntwx = 100, ntwr = 1000
 /
EOF

set output = mdout

--------------------------------------------------------------------------------
   1.  RESOURCE   USE:
--------------------------------------------------------------------------------

 getting box info from netcdf restart file
 NATOM  =    4466 NTYPES =      14 NBONH =    4443 MBONA  =      23
 NTHETH =      21 MTHETA =      36 NPHIH =      43 MPHIA  =      51
 NHPARM =       0 NPARM  =       0 NNB   =    6069 NRES   =    1481
 NBONA  =      23 NTHETA =      36 NPHIA =      51 NUMBND =      19
 NUMANG =      27 NPTRA  =      13 NATYP =      16 NPHB   =       0
 IFBOX  =       1 NMXRS  =      30 IFCAP =       0 NEXTRA =       0
 NCOPY  =       0

     BOX TYPE: RECTILINEAR

--------------------------------------------------------------------------------
   2.  CONTROL  DATA  FOR  THE  RUN
--------------------------------------------------------------------------------

default_name

General flags:
     imin    =       0, nmropt  =       0

Nature and format of input:
     ntx     =       5, irest   =       1, ntrx    =       1

Nature and format of output:
     ntxo    =       2, ntpr    =     100, ntrx    =       1, ntwr    =    1000
     iwrap   =       0, ntwx    =     100, ntwv    =       0, ntwe    =       0
     ioutfm  =       1, ntwprt  =       0, idecomp =       0, rbornstat=      0

Potential function:
     ntf     =       2, ntb     =       1, igb     =       0, nsnb    =      25
     ipol    =       0, gbsa    =       0, iesp    =       0
     dielc   =   1.00000, cut     =  15.00000, intdiel =   1.00000

Frozen or restrained atoms:
     ibelly  =       0, ntr     =       0

Molecular dynamics:
     nstlim  =     10000, nscm    =      1000, nrespa  =         1
     t       =   0.00000, dt      =   0.00100, vlimit  =  20.00000

Langevin dynamics temperature regulation:
     ig      =   71277
     temp0   = 298.00000, tempi   =   0.00000, gamma_ln=   1.00000

SHAKE:
     ntc     =       2, jfastw  =       0
     tol     =   0.00001

Ewald parameters:
     verbose =       0, ew_type =       0, nbflag  =       1, use_pme =       1
     vdwmeth =       1, eedmeth =       1, netfrc  =       1
     Box X =   38.861   Box Y =   47.921   Box Z =   34.680
     Alpha =   90.000   Beta  =   90.000   Gamma =   90.000
     NFFT1 =   40       NFFT2 =   48       NFFT3 =   36
     Cutoff=   15.000   Tol   =0.100E-04
     Ewald Coefficient =  0.17871
     Interpolation order =    4

--------------------------------------------------------------------------------
   3.  ATOMIC COORDINATES AND VELOCITIES
--------------------------------------------------------------------------------

default_name
 begin time read from input coords =    20.000 ps

 Number of triangulated 3-point waters found:     1478

     Sum of charges from parm topology file =  -2.00200000
     Assuming uniform neutralizing plasma

--------------------------------------------------------------------------------
   4.  RESULTS
 NSTEP =      100   TIME(PS) =      20.100  TEMP(K) =   300.99  PRESS =     0.0
 Etot   =    -11335.6090  EKtot   =      2678.0689  EPtot      =    -14013.6779
 BOND   =         7.6284  ANGLE   =        17.1855  DIHED      =        20.1091
 1-4 NB =         8.1148  1-4 EEL =       -24.4672  VDWAALS    =      2004.1962
 EELEC  =    -16046.4447  EHBOND  =         0.0000  RESTRAINT  =         0.0000
 Ewald error estimate:   0.1999E-04
 ------------------------------------------------------------------------------

      A V E R A G E S   O V E R   10000 S T E P S

 NSTEP =    10000   TIME(PS) =      30.000  TEMP(K) =   295.85  PRESS =     0.0
 Etot   =    -11333.0021  EKtot   =      2632.4056  EPtot      =    -13965.4077
 BOND   =         7.9565  ANGLE   =        14.3584  DIHED      =        20.4817
 1-4 NB =         9.0726  1-4 EEL =       -22.3383  VDWAALS    =      2089.2649
 EELEC  =    -16084.2034  EHBOND  =         0.0000  RESTRAINT  =         0.0000
 Ewald error estimate:   0.2755E-03
 ------------------------------------------------------------------------------

      R M S  F L U C T U A T I O N S

 NSTEP =    10000   TIME(PS) =      30.000  TEMP(K) =     4.32  PRESS =     0.0
 Etot   =        46.4337  EKtot   =        38.4206  EPtot      =        45.7608
 BOND   =         2.2075  ANGLE   =         2.7413  DIHED      =         1.5696
 1-4 NB =         0.9801  1-4 EEL =         1.9621  VDWAALS    =        54.4481
 EELEC  =        78.5615  EHBOND  =         0.0000  RESTRAINT  =         0.0000
 Ewald error estimate:   0.2074E-03
 ------------------------------------------------------------------------------
